$$$$$$$$$$$$$$$$$$$$$$$$$$$$$$$$$$$$$$$$$$$$$$$$$$$$$$$$$$$$$$$$$$$$$$$$$$$$$$$$$$$$$$$
$
$ Wheel ¹1. 
$
$$$$$$$$$$$$$$$$$$$$$$$$$$$$$$$$$$$$$$$$$$$$$$$$$$$$$$$$$$$$$$$$$$$$$$$$$$$$$$$$$$$$$$$

GRID     31001          0.175   -0.075   0.350
GRID     31002          0.175   -0.000   0.330

GRID     31003          0.175   0.055    0.275

GRID     31004          0.175   0.075    0.200

GRID     31005          0.175   0.055    0.125

GRID     31006          0.175   -0.000   0.070

GRID     31007          0.175   -0.075   0.050

GRID     31008          0.175   -0.150   0.070

GRID     31009          0.175   -0.205   0.125

GRID     31010          0.175   -0.225   0.200

GRID     31011          0.175   -0.205   0.275

GRID     31012          0.175   -0.150   0.330



GRID     31101          0.105   -0.075   0.350
GRID     31102          0.105   -0.000   0.330

GRID     31103          0.105   0.055    0.275

GRID     31104          0.105   0.075    0.200

GRID     31105          0.105   0.055    0.125

GRID     31106          0.105   -0.000   0.070

GRID     31107          0.105   -0.075   0.050

GRID     31108          0.105   -0.150   0.070

GRID     31109          0.105   -0.205   0.125

GRID     31110          0.105   -0.225   0.200

GRID     31111          0.105   -0.205   0.275

GRID     31112          0.105   -0.150   0.330


GRID     31201          0.175   -0.075   0.215

GRID     31202          0.175   -0.068   0.213

GRID     31203          0.175   -0.062   0.208

GRID     31204          0.175   -0.060   0.200

GRID     31205          0.175   -0.062   0.193

GRID     31206          0.175   -0.068   0.187

GRID     31207          0.175   -0.075   0.185

GRID     31208          0.175   -0.083   0.187

GRID     31209          0.175   -0.088   0.193

GRID     31210          0.175   -0.090   0.200

GRID     31211          0.175   -0.088   0.208

GRID     31212          0.175   -0.083   0.213


GRID     31213          0.175   -0.075   0.200


CQUAD4   31001   30001   31002   31001   31201   31202
CQUAD4   31002   30001   31003   31002   31202   31203
CQUAD4   31003   30001   31004   31003   31203   31204
CQUAD4   31004   30001   31005   31004   31204   31205
CQUAD4   31005   30001   31006   31005   31205   31206
CQUAD4   31006   30001   31007   31006   31206   31207
CQUAD4   31007   30001   31008   31007   31207   31208
CQUAD4   31008   30001   31009   31008   31208   31209
CQUAD4   31009   30001   31010   31009   31209   31210
CQUAD4   31010   30001   31011   31010   31210   31211
CQUAD4   31011   30001   31012   31011   31211   31212
CQUAD4   31012   30001   31001   31012   31212   31201



CQUAD4   31101   30001   31001   31002   31102   31101
CQUAD4   31102   30001   31002   31003   31103   31102
CQUAD4   31103   30001   31003   31004   31104   31103
CQUAD4   31104   30001   31004   31005   31105   31104
CQUAD4   31105   30001   31005   31006   31106   31105
CQUAD4   31106   30001   31006   31007   31107   31106
CQUAD4   31107   30001   31007   31008   31108   31107
CQUAD4   31108   30001   31008   31009   31109   31108
CQUAD4   31109   30001   31009   31010   31110   31109
CQUAD4   31110   30001   31010   31011   31111   31110
CQUAD4   31111   30001   31011   31012   31112   31111
CQUAD4   31112   30001   31012   31001   31101   31112



CTRIA3   31201   30002   31202   31201   31213
CTRIA3   31202   30002   31203   31202   31213
CTRIA3   31203   30002   31204   31203   31213
CTRIA3   31204   30002   31205   31204   31213
CTRIA3   31205   30002   31206   31205   31213
CTRIA3   31206   30002   31207   31206   31213
CTRIA3   31207   30002   31208   31207   31213
CTRIA3   31208   30002   31209   31208   31213
CTRIA3   31209   30002   31210   31209   31213
CTRIA3   31210   30002   31211   31210   31213
CTRIA3   31211   30002   31212   31211   31213
CTRIA3   31212   30002   31201   31212   31213



GRID     31301          0.145   -0.075   0.185

GRID     31302          0.145   -0.075   0.095

GRID     31303          0.075   -0.075   0.095

GRID     31304          0.075   -0.075   0.125

GRID     31305          0.115   -0.075   0.125

GRID     31306          0.115   -0.075   0.215




CTRIA3   31301   30001   31213   31207   31301
CQUAD4   31302   30001   31201   31213   31301   31306
CQUAD4   31303   30001   31301   31302   31305   31306
CQUAD4   31304   30001   31305   31302   31303   31304


$$$$$$$$$$$$$$$$$$$$$$$$$$$$$$$$$$$$$$$$$$$$$$$$$$$$$$$$$$$$$$$$$$$$$$$$$$$$$$$$$$$$$$$
$
$ Wheel ¹2. 
$
$$$$$$$$$$$$$$$$$$$$$$$$$$$$$$$$$$$$$$$$$$$$$$$$$$$$$$$$$$$$$$$$$$$$$$$$$$$$$$$$$$$$$$$




GRID     32001          0.175   -0.075  -0.050
GRID     32002          0.175   -0.000  -0.070
GRID     32003          0.175   0.055   -0.125
GRID     32004          0.175   0.075   -0.200
GRID     32005          0.175   0.055   -0.275
GRID     32006          0.175   -0.000  -0.330
GRID     32007          0.175   -0.075  -0.350
GRID     32008          0.175   -0.150  -0.330
GRID     32009          0.175   -0.205  -0.275
GRID     32010          0.175   -0.225  -0.200
GRID     32011          0.175   -0.205  -0.125
GRID     32012          0.175   -0.150  -0.070





GRID     32101          0.105   -0.075  -0.050
GRID     32102          0.105   -0.000  -0.070
GRID     32103          0.105   0.055   -0.125
GRID     32104          0.105   0.075   -0.200
GRID     32105          0.105   0.055   -0.275
GRID     32106          0.105   -0.000  -0.330
GRID     32107          0.105   -0.075  -0.350
GRID     32108          0.105   -0.150  -0.330
GRID     32109          0.105   -0.205  -0.275
GRID     32110          0.105   -0.225  -0.200
GRID     32111          0.105   -0.205  -0.125
GRID     32112          0.105   -0.150  -0.070




GRID     32201          0.175   -0.075  -0.185
GRID     32202          0.175   -0.068  -0.187
GRID     32203          0.175   -0.062  -0.193
GRID     32204          0.175   -0.060  -0.200
GRID     32205          0.175   -0.062  -0.208
GRID     32206          0.175   -0.068  -0.213
GRID     32207          0.175   -0.075  -0.215
GRID     32208          0.175   -0.083  -0.213
GRID     32209          0.175   -0.088  -0.208
GRID     32210          0.175   -0.090  -0.200
GRID     32211          0.175   -0.088  -0.193
GRID     32212          0.175   -0.083  -0.187



GRID     32213          0.175   -0.075   -0.200




CQUAD4   32001   30001   32002   32001   32201   32202
CQUAD4   32002   30001   32003   32002   32202   32203
CQUAD4   32003   30001   32004   32003   32203   32204
CQUAD4   32004   30001   32005   32004   32204   32205
CQUAD4   32005   30001   32006   32005   32205   32206
CQUAD4   32006   30001   32007   32006   32206   32207
CQUAD4   32007   30001   32008   32007   32207   32208
CQUAD4   32008   30001   32009   32008   32208   32209
CQUAD4   32009   30001   32010   32009   32209   32210
CQUAD4   32010   30001   32011   32010   32210   32211
CQUAD4   32011   30001   32012   32011   32211   32212
CQUAD4   32012   30001   32001   32012   32212   32201



CQUAD4   32101   30001   32001   32002   32102   32101
CQUAD4   32102   30001   32002   32003   32103   32102
CQUAD4   32103   30001   32003   32004   32104   32103
CQUAD4   32104   30001   32004   32005   32105   32104
CQUAD4   32105   30001   32005   32006   32106   32105
CQUAD4   32106   30001   32006   32007   32107   32106
CQUAD4   32107   30001   32007   32008   32108   32107
CQUAD4   32108   30001   32008   32009   32109   32108
CQUAD4   32109   30001   32009   32010   32110   32109
CQUAD4   32110   30001   32010   32011   32111   32110
CQUAD4   32111   30001   32011   32012   32112   32111
CQUAD4   32112   30001   32012   32001   32101   32112



CTRIA3   32201   30002   32202   32201   32213
CTRIA3   32202   30002   32203   32202   32213
CTRIA3   32203   30002   32204   32203   32213
CTRIA3   32204   30002   32205   32204   32213
CTRIA3   32205   30002   32206   32205   32213
CTRIA3   32206   30002   32207   32206   32213
CTRIA3   32207   30002   32208   32207   32213
CTRIA3   32208   30002   32209   32208   32213
CTRIA3   32209   30002   32210   32209   32213
CTRIA3   32210   30002   32211   32210   32213
CTRIA3   32211   30002   32212   32211   32213
CTRIA3   32212   30002   32201   32212   32213



GRID     32301          0.145   -0.075   -0.185

GRID     32302          0.145   -0.075   -0.095

GRID     32303          0.075   -0.075   -0.095

GRID     32304          0.075   -0.075   -0.125

GRID     32305          0.115   -0.075   -0.125

GRID     32306          0.115   -0.075   -0.215




CTRIA3   32301   30001   32301   32201   32213
CQUAD4   32302   30001   32306   32301   32213   32207
CQUAD4   32303   30001   32306   32305   32302   32301
CQUAD4   32304   30001   32304   32303   32302   32305



$$$$$$$$$$$$$$$$$$$$$$$$$$$$$$$$$$$$$$$$$$$$$$$$$$$$$$$$$$$$$$$$$$$$$$$$$$$$$$$$$$$$$$$
$
$ Wheel ¹3. 
$
$$$$$$$$$$$$$$$$$$$$$$$$$$$$$$$$$$$$$$$$$$$$$$$$$$$$$$$$$$$$$$$$$$$$$$$$$$$$$$$$$$$$$$$




GRID     33001          -0.175   -0.075  -0.050
GRID     33002          -0.175   -0.000  -0.070
GRID     33003          -0.175   0.055   -0.125
GRID     33004          -0.175   0.075   -0.200
GRID     33005          -0.175   0.055   -0.275
GRID     33006          -0.175   -0.000  -0.330
GRID     33007          -0.175   -0.075  -0.350
GRID     33008          -0.175   -0.150  -0.330
GRID     33009          -0.175   -0.205  -0.275
GRID     33010          -0.175   -0.225  -0.200
GRID     33011          -0.175   -0.205  -0.125
GRID     33012          -0.175   -0.150  -0.070





GRID     33101          -0.105   -0.075  -0.050
GRID     33102          -0.105   -0.000  -0.070
GRID     33103          -0.105   0.055   -0.125
GRID     33104          -0.105   0.075   -0.200
GRID     33105          -0.105   0.055   -0.275
GRID     33106          -0.105   -0.000  -0.330
GRID     33107          -0.105   -0.075  -0.350
GRID     33108          -0.105   -0.150  -0.330
GRID     33109          -0.105   -0.205  -0.275
GRID     33110          -0.105   -0.225  -0.200
GRID     33111          -0.105   -0.205  -0.125
GRID     33112          -0.105   -0.150  -0.070




GRID     33201          -0.175   -0.075  -0.185
GRID     33202          -0.175   -0.068  -0.187
GRID     33203          -0.175   -0.062  -0.193
GRID     33204          -0.175   -0.060  -0.200
GRID     33205          -0.175   -0.062  -0.208
GRID     33206          -0.175   -0.068  -0.213
GRID     33207          -0.175   -0.075  -0.215
GRID     33208          -0.175   -0.083  -0.213
GRID     33209          -0.175   -0.088  -0.208
GRID     33210          -0.175   -0.090  -0.200
GRID     33211          -0.175   -0.088  -0.193
GRID     33212          -0.175   -0.083  -0.187



GRID     33213          -0.175   -0.075   -0.200




CQUAD4   33001   30001   33001   33002   33202   33201
CQUAD4   33002   30001   33002   33003   33203   33202
CQUAD4   33003   30001   33003   33004   33204   33203
CQUAD4   33004   30001   33004   33005   33205   33204
CQUAD4   33005   30001   33005   33006   33206   33205
CQUAD4   33006   30001   33006   33007   33207   33206
CQUAD4   33007   30001   33007   33008   33208   33207
CQUAD4   33008   30001   33008   33009   33209   33208
CQUAD4   33009   30001   33009   33010   33210   33209
CQUAD4   33010   30001   33010   33011   33211   33210
CQUAD4   33011   30001   33011   33012   33212   33211
CQUAD4   33012   30001   33012   33001   33201   33212



CQUAD4   33101   30001   33002   33001   33101   33102
CQUAD4   33102   30001   33003   33002   33102   33103
CQUAD4   33103   30001   33004   33003   33103   33104
CQUAD4   33104   30001   33005   33004   33104   33105
CQUAD4   33105   30001   33006   33005   33105   33106
CQUAD4   33106   30001   33007   33006   33106   33107
CQUAD4   33107   30001   33008   33007   33107   33108
CQUAD4   33108   30001   33009   33008   33108   33109
CQUAD4   33109   30001   33010   33009   33109   33110
CQUAD4   33110   30001   33011   33010   33110   33111
CQUAD4   33111   30001   33012   33011   33111   33112
CQUAD4   33112   30001   33001   33012   33112   33101



CTRIA3   33201   30002   33201   33202   33213
CTRIA3   33202   30002   33202   33203   33213
CTRIA3   33203   30002   33203   33204   33213
CTRIA3   33204   30002   33204   33205   33213
CTRIA3   33205   30002   33205   33206   33213
CTRIA3   33206   30002   33206   33207   33213
CTRIA3   33207   30002   33207   33208   33213
CTRIA3   33208   30002   33208   33209   33213
CTRIA3   33209   30002   33209   33210   33213
CTRIA3   33210   30002   33210   33211   33213
CTRIA3   33211   30002   33211   33212   33213
CTRIA3   33212   30002   33212   33201   33213



GRID     33301          -0.145   -0.075   -0.185

GRID     33302          -0.145   -0.075   -0.095

GRID     33303          -0.075   -0.075   -0.095

GRID     33304          -0.075   -0.075   -0.125

GRID     33305          -0.115   -0.075   -0.125

GRID     33306          -0.115   -0.075   -0.215




$CTRIA3   33301   30001   33301   33201   33213
$CQUAD4   33302   30001   33306   33301   33213   33207
$CQUAD4   33303   30001   33306   33305   33302   33301
$CQUAD4   33304   30001   33304   33303   33302   33305



CTRIA3   33301   30001   33213   33201   33301
CQUAD4   33302   30001   33207   33213   33301   33306
CQUAD4   33303   30001   33301   33302   33305   33306
CQUAD4   33304   30001   33305   33302   33303   33304


$$$$$$$$$$$$$$$$$$$$$$$$$$$$$$$$$$$$$$$$$$$$$$$$$$$$$$$$$$$$$$$$$$$$$$$$$$$$$$$$$$$$$$$
$
$ Wheel ¹4. 
$
$$$$$$$$$$$$$$$$$$$$$$$$$$$$$$$$$$$$$$$$$$$$$$$$$$$$$$$$$$$$$$$$$$$$$$$$$$$$$$$$$$$$$$$



GRID     34001          -0.175   -0.075   0.350
GRID     34002          -0.175   -0.000   0.330

GRID     34003          -0.175   0.055    0.275

GRID     34004          -0.175   0.075    0.200

GRID     34005          -0.175   0.055    0.125

GRID     34006          -0.175   -0.000   0.070

GRID     34007          -0.175   -0.075   0.050

GRID     34008          -0.175   -0.150   0.070

GRID     34009          -0.175   -0.205   0.125

GRID     34010          -0.175   -0.225   0.200

GRID     34011          -0.175   -0.205   0.275

GRID     34012          -0.175   -0.150   0.330





GRID     34101          -0.105   -0.075   0.350
GRID     34102          -0.105   -0.000   0.330

GRID     34103          -0.105   0.055    0.275

GRID     34104          -0.105   0.075    0.200

GRID     34105          -0.105   0.055    0.125

GRID     34106          -0.105   -0.000   0.070

GRID     34107          -0.105   -0.075   0.050

GRID     34108          -0.105   -0.150   0.070

GRID     34109          -0.105   -0.205   0.125

GRID     34110          -0.105   -0.225   0.200

GRID     34111          -0.105   -0.205   0.275

GRID     34112          -0.105   -0.150   0.330




GRID     34201          -0.175   -0.075   0.215

GRID     34202          -0.175   -0.068   0.213

GRID     34203          -0.175   -0.062   0.208

GRID     34204          -0.175   -0.060   0.200

GRID     34205          -0.175   -0.062   0.193

GRID     34206          -0.175   -0.068   0.187

GRID     34207          -0.175   -0.075   0.185

GRID     34208          -0.175   -0.083   0.187

GRID     34209          -0.175   -0.088   0.193

GRID     34210          -0.175   -0.090   0.200

GRID     34211          -0.175   -0.088   0.208

GRID     34212          -0.175   -0.083   0.213



GRID     34213          -0.175   -0.075   0.200




CQUAD4   34001   30001   34001   34002   34202   34201
CQUAD4   34002   30001   34002   34003   34203   34202
CQUAD4   34003   30001   34003   34004   34204   34203
CQUAD4   34004   30001   34004   34005   34205   34204
CQUAD4   34005   30001   34005   34006   34206   34205
CQUAD4   34006   30001   34006   34007   34207   34206
CQUAD4   34007   30001   34007   34008   34208   34207
CQUAD4   34008   30001   34008   34009   34209   34208
CQUAD4   34009   30001   34009   34010   34210   34209
CQUAD4   34010   30001   34010   34011   34211   34210
CQUAD4   34011   30001   34011   34012   34212   34211
CQUAD4   34012   30001   34012   34001   34201   34212



CQUAD4   34101   30001   34002   34001   34101   34102
CQUAD4   34102   30001   34003   34002   34102   34103
CQUAD4   34103   30001   34004   34003   34103   34104
CQUAD4   34104   30001   34005   34004   34104   34105
CQUAD4   34105   30001   34006   34005   34105   34106
CQUAD4   34106   30001   34007   34006   34106   34107
CQUAD4   34107   30001   34008   34007   34107   34108
CQUAD4   34108   30001   34009   34008   34108   34109
CQUAD4   34109   30001   34010   34009   34109   34110
CQUAD4   34110   30001   34011   34010   34110   34111
CQUAD4   34111   30001   34012   34011   34111   34112
CQUAD4   34112   30001   34001   34012   34112   34101



CTRIA3   34201   30002   34201   34202   34213
CTRIA3   34202   30002   34202   34203   34213
CTRIA3   34203   30002   34203   34204   34213
CTRIA3   34204   30002   34204   34205   34213
CTRIA3   34205   30002   34205   34206   34213
CTRIA3   34206   30002   34206   34207   34213
CTRIA3   34207   30002   34207   34208   34213
CTRIA3   34208   30002   34208   34209   34213
CTRIA3   34209   30002   34209   34210   34213
CTRIA3   34210   30002   34210   34211   34213
CTRIA3   34211   30002   34211   34212   34213
CTRIA3   34212   30002   34212   34201   34213



GRID     34301          -0.145   -0.075   0.185

GRID     34302          -0.145   -0.075   0.095

GRID     34303          -0.075   -0.075   0.095

GRID     34304          -0.075   -0.075   0.125

GRID     34305          -0.115   -0.075   0.125

GRID     34306          -0.115   -0.075   0.215




CTRIA3   34301   30001   34301   34207   34213
CQUAD4   34302   30001   34306   34301   34213   34201
CQUAD4   34303   30001   34306   34305   34302   34301
CQUAD4   34304   30001   34304   34303   34302   34305

$ Cuprum 5 mm. For wheels
PSHELL   30001   1      .005     1               1

$ Aluminum 100 ìì. For wheels motors
PSHELL   30002   1      .100     1               1




$$$$$$$$$$$$$$$$$$$$$$$$$$$$$$$$$$$$$$$$$$$$$$$$$$$$$$$$$$$$$$$$$$$$$$$$$$$$$$$$$$$$$$$
$
$ Lunokhod case
$
$$$$$$$$$$$$$$$$$$$$$$$$$$$$$$$$$$$$$$$$$$$$$$$$$$$$$$$$$$$$$$$$$$$$$$$$$$$$$$$$$$$$$$$
$ Aluminum 5 mm 
PSHELL   1       1      .005     1               1

CQUAD4   1       1       8       1       34304   31304
CQUAD4   2       1       32304   5       8       31304
CQUAD4   3       1       32304   33304   7       5
CQUAD4   4       1       34304   1       7       33304
CQUAD4   6       1       8       5       7       1

$CQUAD4   5       1       4       2       3       6
CQUAD4   5       1       32303   31303   34303   33303
CQUAD4   51      1       32304   32303   33303   33304
CQUAD4   52      1       31303   31304   34304   34303


MAT1     1      7.+10           .3      2700.

GRID     1              -.075   .075    .125
GRID     2              .075    -.075   .125
GRID     3              -.075   -.075   .125
GRID     4              .075    -.075   -.125
GRID     5              .075    .075    -.125
GRID     6              -.075   -.075   -.125
GRID     7              -.075   .075    -.125
GRID     8              .075    .075    .125

$$$$$$$$$$$$$$$$$$$$$$$$$$$$$$$$$$$$$$$$$$$$$$$$$$$$$$$$$$$$$$$$$$$$$$$$$$$$$$$$$$$$$$$
$
$ Sun battery
$
$$$$$$$$$$$$$$$$$$$$$$$$$$$$$$$$$$$$$$$$$$$$$$$$$$$$$$$$$$$$$$$$$$$$$$$$$$$$$$$$$$$$$$$


MAT1     20001   7.+10           .3      2700.
PSHELL   20001   20001  .005     1               1

GRID     20000          .0      .365     -.125

GRID     20003          .0      .365     .125


GRID     20006          -.075    .075     -.225
GRID     20007          .0      .365     -.225
GRID     20008          .075    .075     -.225

GRID     20009          .075    .075     .225
GRID     20010          .0      .365     .225
GRID     20011          -.075   .075     .225



CQUAD4   20001    20001    20000   20003   8       5    
CQUAD4   20002    20001    7       1       20003   20000
CQUAD4   20003    20001    20003   20010   20009   8    
CQUAD4   20004    20001    1       20011   20010   20003
CQUAD4   20005    20001    20007   20000   5       20008
CQUAD4   20006    20001    20006   7       20000   20007

$$$$$$$$$$$$$$$$$$$$$$$$$$$$$$$$$$$$$$$$$$$$$$$$$$$$$$$$$$$$$$$$$$$$$$$$$$$$$$$$$$$$$$$
$
$ Moon
$
$$$$$$$$$$$$$$$$$$$$$$$$$$$$$$$$$$$$$$$$$$$$$$$$$$$$$$$$$$$$$$$$$$$$$$$$$$$$$$$$$$$$$$$



MAT1     10001   7.+10           .3      3346.
PSHELL   10001   10001  1.0      1               1


GRID     10001          .5      -.230     -.5
GRID     10002          .5      -.230     .5
GRID     10003          -.5     -.230     .5
GRID     10004          -.5     -.230     -.5


GRID     11009          0.175   -0.206   0.125
GRID     11010          0.175   -0.226   0.200
GRID     11109          0.105   -0.206   0.125
GRID     11110          0.105   -0.226   0.200
GRID     11011          0.175   -0.206   0.275
GRID     11111          0.105   -0.206   0.275


GRID     12009          0.175   -0.206  -0.275
GRID     12010          0.175   -0.226  -0.200
GRID     12011          0.175   -0.206  -0.125
GRID     12109          0.105   -0.206  -0.275
GRID     12110          0.105   -0.226  -0.200
GRID     12111          0.105   -0.206  -0.125


GRID     13009          -0.175   -0.206  -0.275
GRID     13010          -0.175   -0.226  -0.200
GRID     13011          -0.175   -0.206  -0.125
GRID     13109          -0.105   -0.206  -0.275
GRID     13110          -0.105   -0.226  -0.200
GRID     13111          -0.105   -0.206  -0.125


GRID     14009          -0.175   -0.206   0.125
GRID     14010          -0.175   -0.226   0.200
GRID     14011          -0.175   -0.206   0.275
GRID     14109          -0.105   -0.206   0.125
GRID     14110          -0.105   -0.226   0.200
GRID     14111          -0.105   -0.206   0.275

CQUAD4   10001    10001    10004   10003   10002   10001


ENDDATA




