$ NASTRAN input file created by the MSC MSC.Nastran input file
$ translator ( MSC.Patran 13.2.125 ) on December  01, 2008 at 19:42:40.
$ Direct Text Input for Nastran System Cell Section
$ Direct Text Input for File Management Section
$ Linear Static Analysis, Database
SOL 101
$ Direct Text Input for Executive Control
CEND
TITLE = MSC.Nastran job created on 01-Dec-08 at 19:40:04
ECHO = NONE
$ Direct Text Input for Global Case Control Data
SUBCASE 1
$ Subcase name : Default
   SUBTITLE=Default
   DISPLACEMENT(SORT1,REAL)=ALL
   SPCFORCES(SORT1,REAL)=ALL
   STRESS(SORT1,REAL,VONMISES,BILIN)=ALL
BEGIN BULK
PARAM    POST    0
PARAM   PRTMAXIM YES
$ Direct Text Input for Bulk Data
$ Elements and Element Properties for region : prop_st
PSOLID   1       1       0
$ Pset: "prop_st" will be imported as: "psolid.1"
CHEXA    1       1       1       2       4       3       5       6
         8       7
CHEXA    2       1       5       6       8       7       9       10
         12      11
CHEXA    3       1       9       10      12      11      13      14
         16      15
CHEXA    4       1       13      14      16      15      17      18
         20      19
CHEXA    5       1       17      18      20      19      21      22
         24      23
CHEXA    6       1       21      22      24      23      25      26
         28      27
CHEXA    7       1       25      26      28      27      29      30
         32      31
CHEXA    8       1       29      30      32      31      33      34
         36      35
CHEXA    9       1       33      34      36      35      37      38
         40      39
CHEXA    10      1       37      38      40      39      41      42
         44      43
CHEXA    11      1       41      42      44      43      45      46
         48      47
CHEXA    12      1       45      46      48      47      49      50
         52      51
CHEXA    13      1       49      50      52      51      53      54
         56      55
CHEXA    14      1       53      54      56      55      57      58
         60      59
CHEXA    15      1       57      58      60      59      61      62
         64      63
CHEXA    16      1       61      62      64      63      65      66
         68      67
CHEXA    17      1       65      66      68      67      69      70
         72      71
CHEXA    18      1       69      70      72      71      73      74
         76      75
CHEXA    19      1       73      74      76      75      77      78
         80      79
CHEXA    20      1       77      78      80      79      81      82
         84      83
$ ... 160 like lines cut
$ Referenced Material Records
$ Material Record : steel
$ Description of Material : Date: 01-Dec-08           Time: 19:40:10
MAT1     1      2.+11           .33     8960.
$ Nodes of Group : fem_hex
GRID     1               0.      .01     0.
GRID     2               0.      0.      0.
GRID     3               .01     .01     0.
GRID     4               .01     0.      0.
GRID     5               0.      .01    .01
GRID     6               0.      0.     .01
GRID     7               .01     .01    .01
GRID     8               .01     0.     .01
GRID     9               0.      .01    .02
GRID     10              0.      0.     .02
GRID     11              .01     .01    .02
GRID     12              .01     0.     .02
GRID     13              0.      .01    .03
GRID     14              0.      0.     .03
GRID     15              .01     .01    .03
GRID     16              .01     0.     .03
GRID     17              0.      .01    .04
GRID     18              0.      0.     .04
GRID     19              .01     .01    .04
GRID     20              .01     0.     .04
$ ... 384 like lines cut

$ Loads for Load Case : Default
$ Referenced Coordinate Frames
ENDDATA
