MAT1    1       3E9     0.      .3      1450.   0.      0.      0.
MAT1    2       4.1E11  0.      .3      1490.   0.      0.      0.  
$ Elements and Element Properties for region : shield_prop.r1
PSHELL   1       1      .001     1               1
PSHELL   11      1      .001     1               1
$ Pset: "shield_prop.r1" will be imported as: "pshell.1"
CTRIA3   2006    1       2001    2012    2000    0.      0.
CTRIA3   2007    1       2003    2013    2002    0.      0.
CTRIA3   2008    1       2005    2014    2004    0.      0.
CTRIA3   2009    1       2007    2015    2006    0.      0.
CTRIA3   2010    11      2009    2016    2008    0.      0.
CTRIA3   2011    11      2011    2017    2010    0.      0.
CTRIA3   2012    1       2012    2018    2000    0.      0.
CTRIA3   2013    1       2013    2019    2002    0.      0.
CTRIA3   2014    1       2014    2020    2004    0.      0.
CTRIA3   2015    1       2015    2021    2006    0.      0.
CTRIA3   2016    11      2016    2022    2008    0.      0.
CTRIA3   2017    11      2017    2023    2010    0.      0.
CTRIA3   2018    1       2018    2024    2000    0.      0.
CTRIA3   2019    1       2019    2025    2002    0.      0.
CTRIA3   2020    1       2020    2026    2004    0.      0.
CTRIA3   2021    1       2021    2027    2006    0.      0.
CTRIA3   2022    11      2022    2028    2008    0.      0.
CTRIA3   2023    11      2023    2029    2010    0.      0.
CTRIA3   2024    1       2024    2030    2000    0.      0.
CTRIA3   2025    1       2025    2031    2002    0.      0.
$ ... 28 like lines cut
$ Elements and Element Properties for region : mirror_prop.r2
PSHELL   2       2      .005     4               4
$ Pset: "mirror_prop.r2" will be imported as: "pshell.2"
CQUAD4   1000    2       1003    1020    1018    1001    0.      0.
CQUAD4   1001    2       1004    1021    1020    1003    0.      0.
CQUAD4   1002    2       1007    1024    1021    1004    0.      0.
CQUAD4   1003    2       1009    1026    1024    1007    0.      0.
CQUAD4   1004    2       1011    1028    1026    1009    0.      0.
CQUAD4   1005    2       1013    1030    1028    1011    0.      0.
CQUAD4   1006    2       1015    1032    1030    1013    0.      0.
CQUAD4   1007    2       1017    1034    1032    1015    0.      0.
CQUAD4   1008    2       1020    1037    1035    1018    0.      0.
CQUAD4   1009    2       1021    1038    1037    1020    0.      0.
CQUAD4   1010    2       1024    1041    1038    1021    0.      0.
CQUAD4   1011    2       1026    1043    1041    1024    0.      0.
CQUAD4   1012    2       1028    1045    1043    1026    0.      0.
CQUAD4   1013    2       1030    1047    1045    1028    0.      0.
CQUAD4   1014    2       1032    1049    1047    1030    0.      0.
CQUAD4   1015    2       1034    1051    1049    1032    0.      0.
CQUAD4   1016    2       1037    1054    1052    1035    0.      0.
CQUAD4   1017    2       1038    1055    1054    1037    0.      0.
CQUAD4   1018    2       1041    1058    1055    1038    0.      0.
CQUAD4   1019    2       1043    1060    1058    1041    0.      0.
$ ... 76 like lines cut
CTRIA3   1096    2       1001    1018    1000    0.      0.
CTRIA3   1097    2       1018    1035    1000    0.      0.
CTRIA3   1098    2       1035    1052    1000    0.      0.
CTRIA3   1099    2       1052    1069    1000    0.      0.
CTRIA3   1100    2       1069    1086    1000    0.      0.
CTRIA3   1101    2       1086    1103    1000    0.      0.
CTRIA3   1102    2       1103    1120    1000    0.      0.
CTRIA3   1103    2       1120    1137    1000    0.      0.
CTRIA3   1104    2       1137    1154    1000    0.      0.
CTRIA3   1105    2       1154    1171    1000    0.      0.
CTRIA3   1106    2       1171    1188    1000    0.      0.
CTRIA3   1107    2       1188    1001    1000    0.      0.
$ Referenced Material Records
$ Material Record : matrl.3
$ Description of Material :
$ Externally Defined Material of NASTRAN Material id "3" and NASTRAN
$ Material Type "MAT1".
$ External Material matrl.3                         MAT1    ID 3
$ Material Record : matrl.4
$ Description of Material :
$ Externally Defined Material of NASTRAN Material id "4" and NASTRAN
$ Material Type "MAT1".
$ External Material matrl.4                         MAT1    ID 4
$ Nodes of the Entire Model
GRID     1000            0.      0.      0.
GRID     1001           -.104    0.     1.
GRID     1003           -.234    0.     1.5
GRID     1004           -.417    0.     2.
GRID     1007           -.651    0.     2.5
GRID     1009           -.938    0.     3.
GRID     1011           -1.276   0.     3.5
GRID     1013           -1.667   0.     4.
GRID     1015           -2.109   0.     4.5
GRID     1017           -2.604   0.     5.
GRID     1018           -.104   -.5     .866025
GRID     1020           -.234   -.75    1.29904
GRID     1021           -.417   -1.     1.73205
GRID     1024           -.651   -1.25   2.16506
GRID     1026           -.938   -1.5    2.59808
GRID     1028           -1.276  -1.75   3.03109
GRID     1030           -1.667  -2.     3.4641
GRID     1032           -2.109  -2.25   3.89711
GRID     1034           -2.604  -2.5    4.33013
GRID     1035           -.104   -.866025.5
$ ... 8 like lines cut
GRID*    1052                           -.104           -1.
*       6.12323-17
GRID*    1054                           -.234           -1.5
*       9.18485-17
GRID*    1055                           -.417           -2.
*       1.22465-16
GRID*    1058                           -.651           -2.5
*       1.53081-16
GRID*    1060                           -.938           -3.
*       1.83697-16
GRID*    1062                           -1.276          -3.5
*       2.14313-16
GRID*    1064                           -1.667          -4.
*       2.44929-16
GRID*    1066                           -2.109          -4.5
*       2.75546-16
GRID*    1068                           -2.604          -5.
*       3.06162-16
GRID     1069           -.104   -.866025-.5
GRID     1071           -.234   -1.29904-.75
GRID     1072           -.417   -1.73205-1.
GRID     1075           -.651   -2.16506-1.25
GRID     1077           -.938   -2.59808-1.5
GRID     1079           -1.276  -3.03109-1.75
GRID     1081           -1.667  -3.4641 -2.
GRID     1083           -2.109  -3.89711-2.25
GRID     1085           -2.604  -4.33013-2.5
GRID     1086           -.104   -.5     -.866025
GRID     1088           -.234   -.75    -1.29904
GRID     1089           -.417   -1.     -1.73205
GRID     1092           -.651   -1.25   -2.16506
GRID     1094           -.938   -1.5    -2.59808
GRID     1096           -1.276  -1.75   -3.03109
GRID     1098           -1.667  -2.     -3.4641
GRID     1100           -2.109  -2.25   -3.89711
GRID     1102           -2.604  -2.5    -4.33013
GRID*    1103                           -.104           -1.22465-16
*       -1.
GRID*    1105                           -.234           -1.83697-16
*       -1.5
GRID*    1106                           -.417           -2.44929-16
*       -2.
GRID*    1109                           -.651           -3.06162-16
*       -2.5
GRID*    1111                           -.938           -3.67394-16
*       -3.
GRID*    1113                           -1.276          -4.28626-16
*       -3.5
GRID*    1115                           -1.667          -4.89859-16
*       -4.
GRID*    1117                           -2.109          -5.51091-16
*       -4.5
GRID*    1119                           -2.604          -6.12323-16
*       -5.
GRID     1120           -.104   .5      -.866025
GRID     1122           -.234   .75     -1.29904
GRID     1123           -.417   1.      -1.73205
GRID     1126           -.651   1.25    -2.16506
GRID     1128           -.938   1.5     -2.59808
GRID     1130           -1.276  1.75    -3.03109
GRID     1132           -1.667  2.      -3.4641
GRID     1134           -2.109  2.25    -3.89712
GRID     1136           -2.604  2.5     -4.33013
GRID     1137           -.104   .866025 -.5
GRID     1139           -.234   1.29904 -.75
GRID     1140           -.417   1.73205 -1.
GRID     1143           -.651   2.16506 -1.25
GRID     1145           -.938   2.59808 -1.5
GRID     1147           -1.276  3.03109 -1.75
GRID     1149           -1.667  3.4641  -2.
GRID     1151           -2.109  3.89712 -2.25
GRID     1153           -2.604  4.33013 -2.5
GRID*    1154                           -.104           1.
*       -1.83697-16
GRID*    1156                           -.234           1.5
*       -2.75546-16
GRID*    1157                           -.417           2.
*       -3.67394-16
GRID*    1160                           -.651           2.5
*       -4.59243-16
GRID*    1162                           -.938           3.
*       -5.51091-16
GRID*    1164                           -1.276          3.5
*       -6.4294-16
GRID*    1166                           -1.667          4.
*       -7.34788-16
GRID*    1168                           -2.109          4.5
*       -8.26637-16
GRID*    1170                           -2.604          5.
*       -9.18485-16
GRID     1171           -.104   .866025 .5
GRID     1173           -.234   1.29904 .75
GRID     1174           -.417   1.73205 1.
GRID     1177           -.651   2.16506 1.25
GRID     1179           -.938   2.59808 1.5
GRID     1181           -1.276  3.03109 1.75
GRID     1183           -1.667  3.4641  2.
GRID     1185           -2.109  3.89712 2.25
GRID     1187           -2.604  4.33013 2.5
GRID     1188           -.104   .5      .866025
GRID     1190           -.234   .75     1.29904
GRID     1191           -.417   1.      1.73205
GRID     1194           -.651   1.25    2.16506
GRID     1196           -.938   1.5     2.59808
GRID     1198           -1.276  1.75    3.03109
GRID     1200           -1.667  2.      3.4641
GRID     1202           -2.109  2.25    3.89712
GRID     1204           -2.604  2.5     4.33013
GRID     2000            0.      0.     -6.
GRID     2001           6.89738  0.     -6.
GRID*    2002                           -5.21541-8       0.
*       -7.
GRID     2003           7.25794  0.     -7.63499
GRID*    2004                           5.96046-8        0.
*       -8.
GRID     2005           7.63533  0.     -9.34631
GRID*    2006                           1.78814-7        0.
*       -9.
GRID     2007           8.03366  0.     -11.1526
GRID*    2008                           -2.98023-8       0.
*       -10.
GRID     2009           8.45838  0.     -13.0786
GRID*    2010                           -1.19209-7       0.
*       -11.
GRID     2011           8.91695  0.     -15.158
GRID     2012           4.87719 4.87719 -6.
GRID     2013           5.13214 5.13214 -7.63499
GRID     2014           5.39899 5.39899 -9.34631
GRID     2015           5.68065 5.68065 -11.1526
GRID     2016           5.98098 5.98098 -13.0786
GRID     2017           6.30524 6.30524 -15.158
GRID*    2018                           4.22343-16      6.89738
*       -6.
GRID*    2019                           4.4442-16       7.25794
*       -7.63499
GRID*    2020                           4.67529-16      7.63533
*       -9.34631
GRID*    2021                           4.9192-16       8.03366
*       -11.1526
GRID*    2022                           5.17926-16      8.45838
*       -13.0786
GRID*    2023                           5.46006-16      8.91695
*       -15.158
GRID     2024           -4.877194.87719 -6.
GRID     2025           -5.132145.13214 -7.63499
GRID     2026           -5.398995.39899 -9.34631
GRID     2027           -5.680655.68065 -11.1526
GRID     2028           -5.980985.98098 -13.0786
GRID     2029           -6.305246.30524 -15.158
GRID*    2030                           -6.89738        8.44686-16
*       -6.
GRID*    2031                           -7.25794        8.88841-16
*       -7.63499
GRID*    2032                           -7.63533        9.35058-16
*       -9.34631
GRID*    2033                           -8.03366        9.83839-16
*       -11.1526
GRID*    2034                           -8.45838        1.03585-15
*       -13.0786
GRID*    2035                           -8.91695        1.09201-15
*       -15.158
GRID     2036           -4.87719-4.87719-6.
GRID     2037           -5.13214-5.13214-7.63499
GRID     2038           -5.39899-5.39899-9.34631
GRID     2039           -5.68065-5.68065-11.1526
GRID     2040           -5.98098-5.98098-13.0786
GRID     2041           -6.30524-6.30524-15.158
GRID*    2042                           -1.26703-15     -6.89738
*       -6.
GRID*    2043                           -1.33326-15     -7.25794
*       -7.63499
GRID*    2044                           -1.40259-15     -7.63533
*       -9.34631
GRID*    2045                           -1.47576-15     -8.03366
*       -11.1526
GRID*    2046                           -1.55378-15     -8.45838
*       -13.0786
GRID*    2047                           -1.63802-15     -8.91695
*       -15.158
GRID     2048           4.87719 -4.87719-6.
GRID     2049           5.13214 -5.13214-7.63499
GRID     2050           5.39899 -5.39899-9.34631
GRID     2051           5.68065 -5.68065-11.1526
GRID     2052           5.98098 -5.98098-13.0786
GRID     2053           6.30524 -6.30524-15.158
$ Loads for Load Case : Default
$ Referenced Coordinate Frames
ENDDATA
