CQUAD4  1       20      2       24      25      10              0.              
                0       0.      0.      0.      0.                              
CQUAD4  2       20      24      23      26      25              0.              
                0       0.      0.      0.      0.                              
CQUAD4  3       20      23      22      27      26              0.              
                0       0.      0.      0.      0.                              
CQUAD4  4       20      22      21      28      27              0.              
                0       0.      0.      0.      0.                              
CQUAD4  5       20      21      20      29      28              0.              
                0       0.      0.      0.      0.                              
CQUAD4  6       20      20      19      30      29              0.              
                0       0.      0.      0.      0.                              
CQUAD4  7       20      19      18      31      30              0.              
                0       0.      0.      0.      0.                              
CQUAD4  8       20      18      3       11      31              0.              
                0       0.      0.      0.      0.                              
CQUAD4  9       20      11      12      30      31              0.              
                0       0.      0.      0.      0.                              
CQUAD4  10      20      12      13      32      30              0.              
                0       0.      0.      0.      0.                              
CQUAD4  11      20      13      14      33      32              0.              
                0       0.      0.      0.      0.                              
CQUAD4  12      20      14      15      34      33              0.              
                0       0.      0.      0.      0.                              
CQUAD4  13      20      15      16      35      34              0.              
                0       0.      0.      0.      0.                              
CQUAD4  14      20      16      17      36      35              0.              
                0       0.      0.      0.      0.                              
CQUAD4  15      20      17      1       4       36              0.              
                0       0.      0.      0.      0.                              
CQUAD4  16      20      4       5       35      36              0.              
                0       0.      0.      0.      0.                              
CQUAD4  17      20      5       6       37      35              0.              
                0       0.      0.      0.      0.                              
CQUAD4  18      20      6       7       38      37              0.              
                0       0.      0.      0.      0.                              
CQUAD4  19      20      7       8       39      38              0.              
                0       0.      0.      0.      0.                              
CQUAD4  20      20      8       9       26      39              0.              
                0       0.      0.      0.      0.                              
$ ... 1036 like lines cut
PSHELL  20      1       .001    1       0.      1       0.      0.              
        0.      0.                                                              
PSHELL  21      2       .01     2       0.      2       0.      0.              
        0.      0.                                                              
GRID    1               0.      15.     0.                      0               
GRID    2               0.      0.      6.                      0               
GRID    3               12.9904 7.5     0.                      0               
GRID    4               0.      13.125  .75                     0               
GRID    5               0.      11.4292 1.42834                 0               
GRID    6               0.      9.47782 2.20887                 0               
GRID    7               0.      7.51377 2.99449                 0               
GRID    8               0.      5.60692 3.75723                 0               
GRID    9               0.      3.71545 4.51382                 0               
GRID    10              0.      1.875   5.25                    0               
GRID    11              11.213  8.52619 0.                      0               
GRID    12              9.72536 9.38506 0.                      0               
GRID    13              8.1002  10.3234 0.                      0               
GRID    14              6.49496 11.2501 0.                      0               
GRID    15              4.88911 12.1773 0.                      0               
GRID    16              3.23933 13.1298 0.                      0               
GRID    17              1.67205 14.0346 0.                      0               
GRID    18              11.3483 6.55196 .758435                 0               
GRID    19              9.86305 5.69444 1.44445                 0               
GRID    20              8.18979 4.72838 2.2173                  0               
$ ... 598 like lines cut
MAT1    1       3E9     0.      .3      1450.   0.      0.      0.              
        0.      0.      0.      0                                               
MAT1    2       4.1E11  0.      .3      3200.   0.      0.      0.              
        0.      0.      0.      0                                               

