$ Mirror

$ Mirror properties
PSHELL   2       2      .001     2               2

$ Mirror 
$2345678123456781234567812345678123456781234567812345678
CQUAD4   4000    2      1041    1042    1043    1044

$ Mirror material SiC
MAT1     2      4.1+11          .3      3200.

$ Mirror elements
GRID     1041           0.0     0.0       0.00
GRID     1042           1.0     0.0       0.00
GRID     1043           1.0     1.0       0.00
GRID     1044           0.0     1.0       0.00

$ 
CQUAD4  1       1       1       2       13      12              0.              
                0       0.      0.      0.      0.                              
CQUAD4  2       1       2       3       14      13              0.              
                0       0.      0.      0.      0.                              
CQUAD4  3       1       3       4       15      14              0.              
                0       0.      0.      0.      0.                              
CQUAD4  4       1       4       5       16      15              0.              
                0       0.      0.      0.      0.                              
CQUAD4  5       1       5       6       17      16              0.              
                0       0.      0.      0.      0.                              
CQUAD4  6       1       6       7       18      17              0.              
                0       0.      0.      0.      0.                              
CQUAD4  7       1       7       8       19      18              0.              
                0       0.      0.      0.      0.                              
CQUAD4  8       1       8       9       20      19              0.              
                0       0.      0.      0.      0.                              
CQUAD4  9       1       9       10      21      20              0.              
                0       0.      0.      0.      0.                              
CQUAD4  10      1       10      11      22      21              0.              
                0       0.      0.      0.      0.                              
CQUAD4  11      1       12      13      24      23              0.              
                0       0.      0.      0.      0.                              
CQUAD4  12      1       13      14      25      24              0.              
                0       0.      0.      0.      0.                              
CQUAD4  13      1       14      15      26      25              0.              
                0       0.      0.      0.      0.                              
CQUAD4  14      1       15      16      27      26              0.              
                0       0.      0.      0.      0.                              
CQUAD4  15      1       16      17      28      27              0.              
                0       0.      0.      0.      0.                              
CQUAD4  16      1       17      18      29      28              0.              
                0       0.      0.      0.      0.                              
CQUAD4  17      1       18      19      30      29              0.              
                0       0.      0.      0.      0.                              
CQUAD4  18      1       19      20      31      30              0.              
                0       0.      0.      0.      0.                              
CQUAD4  19      1       20      21      32      31              0.              
                0       0.      0.      0.      0.                              
CQUAD4  20      1       21      22      33      32              0.              
                0       0.      0.      0.      0.                              
$ ... 560 like lines cut
PSHELL  1       1       1E-05   1       0.      1       0.      0.              
        0.      0.                                                              
GRID    1               0.      1.      .0916795                0               
GRID    2               .1      1.      .1034165                0               
GRID    3               .2      1.      .1009531                0               
GRID    4               .3      1.      .0946161                0               
GRID    5               .4      1.      .0970001                0               
GRID    6               .5      1.      .0898185                0               
GRID    7               .6      1.      .099082                 0               
GRID    8               .7      1.      .1110713                0               
GRID    9               .8      1.      .1149632                0               
GRID    10              .9      1.      .1064711                0               
GRID    11              1.      1.      .1072049                0               
GRID    12              0.      .9      .0952273                0               
GRID    13              .1      .9      .111451                 0               
GRID    14              .2      .9      .1089363                0               
GRID    15              .3      .9      .0970192                0               
GRID    16              .4      .9      .1006295                0               
GRID    17              .5      .9      .0976089                0               
GRID    18              .6      .9      .0906571                0               
GRID    19              .7      .9      .0974391                0               
GRID    20              .8      .9      .1059701                0               
$ ... 343 like lines cut
MAT1    1       3E9     0.      .3      1450.   0.      0.      0.              
        0.      0.      0.      0                                               

